LTspice 24.0.12 for Windows
Circuit: * C:\Users\franc\OneDrive\Escritorio\LTSpice_50n\inverter_sim.asc
Start Time: Mon Nov 25 14:08:25 2024
solver = Normal
Maximum thread count: 16
tnom = 27
temp = 27
method = modified trap
Total elapsed time: 0.094 seconds.

