LTspice 24.0.12 for Windows
Circuit: * C:\Users\franc\OneDrive\Escritorio\LTSpice_50n\inverter_sim_tran.asc
Start Time: Mon Nov 25 16:03:28 2024
solver = Normal
Maximum thread count: 16
tnom = 27
temp = 27
method = modified trap
Limiting fall time of source vin to 0.1
Direct Newton iteration for .op point succeeded.
Total elapsed time: 0.123 seconds.

