LTspice 24.0.12 for Windows
Circuit: * C:\Users\franc\OneDrive\Escritorio\LTSpice_50n\ringosc.asc
Start Time: Mon Nov 25 15:23:14 2024
solver = Normal
Maximum thread count: 16
tnom = 27
temp = 27
method = modified trap
Per .tran options, skipping operating point for transient analysis.
Total elapsed time: 0.171 seconds.

