LTspice 24.0.12 for Windows
Circuit: * C:\Users\Administrador\Downloads\TP1_sintesis\Draft2.asc
Start Time: Wed Feb 12 03:56:30 2025
solver = Normal
Maximum thread count: 2
tnom = 27
temp = 27
method = modified trap
Direct Newton iteration for .op point succeeded.
Total elapsed time: 0.660 seconds.

